data_image0
_chemical_formula_structural       O192Si96O192Si96
_chemical_formula_sum              "O384 Si192"
_cell_length_a       20.09
_cell_length_b       19.738
_cell_length_c       26.284
_cell_angle_alpha    90.0
_cell_angle_beta     90.0
_cell_angle_gamma    90.0

_space_group_name_H-M_alt    "P 1"
_space_group_IT_number       1

loop_
  _space_group_symop_operation_xyz
  'x, y, z'

loop_
  _atom_site_type_symbol
  _atom_site_label
  _atom_site_symmetry_multiplicity
  _atom_site_fract_x
  _atom_site_fract_y
  _atom_site_fract_z
  _atom_site_occupancy
  O   O1        1.0  0.5012  0.0699  0.3509  1.0000
  O   O2        1.0  0.9988000000000001  0.5699  0.10089999999999999  1.0000
  O   O3        1.0  0.5012  0.4301  0.3509  1.0000
  O   O4        1.0  0.9988000000000001  0.9301  0.10089999999999999  1.0000
  O   O5        1.0  0.4988  0.9301  0.1491  1.0000
  O   O6        1.0  0.0011999999999998678  0.4301  0.39910000000000007  1.0000
  O   O7        1.0  0.4988  0.5699  0.1491  1.0000
  O   O8        1.0  0.0011999999999998678  0.0699  0.39910000000000007  1.0000
  O   O9        1.0  0.3875  0.0743  0.40040000000000003  1.0000
  O   O10       1.0  0.1125  0.5743  0.1504000000000001  1.0000
  O   O11       1.0  0.3875  0.4256999999999999  0.40040000000000003  1.0000
  O   O12       1.0  0.1125  0.9257  0.1504000000000001  1.0000
  O   O13       1.0  0.6125  0.9257  0.09959999999999997  1.0000
  O   O14       1.0  0.8875  0.4256999999999999  0.3496  1.0000
  O   O15       1.0  0.6125  0.5743  0.09959999999999997  1.0000
  O   O16       1.0  0.8875  0.0743  0.3496  1.0000
  O   O17       1.0  0.3995  0.13659999999999997  0.31254999999999994  1.0000
  O   O18       1.0  0.10049999999999999  0.6365999999999999  0.06254999999999988  1.0000
  O   O19       1.0  0.3995  0.36340000000000006  0.31254999999999994  1.0000
  O   O20       1.0  0.10049999999999999  0.8634  0.06254999999999988  1.0000
  O   O21       1.0  0.6005  0.8634  0.18745000000000006  1.0000
  O   O22       1.0  0.8995  0.36340000000000006  0.43745000000000006  1.0000
  O   O23       1.0  0.6005  0.6365999999999999  0.18745000000000006  1.0000
  O   O24       1.0  0.8995  0.13659999999999997  0.43745000000000006  1.0000
  O   O25       1.0  0.3972  0.003399999999999999  0.3163000000000001  1.0000
  O   O26       1.0  0.1028  0.5034  0.06630000000000003  1.0000
  O   O27       1.0  0.3972  0.49659999999999993  0.3163000000000001  1.0000
  O   O28       1.0  0.1028  0.9965999999999999  0.06630000000000003  1.0000
  O   O29       1.0  0.6028  0.9965999999999999  0.18369999999999992  1.0000
  O   O30       1.0  0.8972  0.49659999999999993  0.4336999999999999  1.0000
  O   O31       1.0  0.6028  0.5034  0.18369999999999992  1.0000
  O   O32       1.0  0.8972  0.003399999999999999  0.4336999999999999  1.0000
  O   O33       1.0  0.329  0.03849999999999999  0.48610000000000003  1.0000
  O   O34       1.0  0.17099999999999999  0.5385  0.23609999999999998  1.0000
  O   O35       1.0  0.329  0.4615  0.48610000000000003  1.0000
  O   O36       1.0  0.17099999999999999  0.9614999999999999  0.23609999999999998  1.0000
  O   O37       1.0  0.671  0.9614999999999999  0.013899999999999968  1.0000
  O   O38       1.0  0.829  0.4615  0.26389999999999997  1.0000
  O   O39       1.0  0.671  0.5385  0.013899999999999968  1.0000
  O   O40       1.0  0.829  0.03849999999999999  0.26389999999999997  1.0000
  O   O41       1.0  0.3297  0.9555  0.40775  1.0000
  O   O42       1.0  0.1703  0.4555  0.15775000000000006  1.0000
  O   O43       1.0  0.3297  0.5444999999999999  0.40775  1.0000
  O   O44       1.0  0.1703  0.044499999999999984  0.15775000000000006  1.0000
  O   O45       1.0  0.6703  0.044499999999999984  0.09225  1.0000
  O   O46       1.0  0.8297  0.5444999999999999  0.34225  1.0000
  O   O47       1.0  0.6703  0.4555  0.09225  1.0000
  O   O48       1.0  0.8297  0.9555  0.34225  1.0000
  O   O49       1.0  0.2571  0.06629999999999998  0.4053  1.0000
  O   O50       1.0  0.2429  0.5663  0.1553  1.0000
  O   O51       1.0  0.2571  0.43370000000000003  0.4053  1.0000
  O   O52       1.0  0.2429  0.9336999999999999  0.1553  1.0000
  O   O53       1.0  0.7429  0.9336999999999999  0.0947  1.0000
  O   O54       1.0  0.7571  0.43370000000000003  0.3447  1.0000
  O   O55       1.0  0.7429  0.5663  0.0947  1.0000
  O   O56       1.0  0.7571  0.06629999999999998  0.3447  1.0000
  O   O57       1.0  0.291  0.1296  0.053  1.0000
  O   O58       1.0  0.209  0.6295999999999999  0.303  1.0000
  O   O59       1.0  0.291  0.37039999999999995  0.053  1.0000
  O   O60       1.0  0.209  0.8704000000000001  0.303  1.0000
  O   O61       1.0  0.7090000000000001  0.8704000000000001  0.447  1.0000
  O   O62       1.0  0.7909999999999999  0.37039999999999995  0.197  1.0000
  O   O63       1.0  0.7090000000000001  0.6295999999999999  0.447  1.0000
  O   O64       1.0  0.7909999999999999  0.1296  0.197  1.0000
  O   O65       1.0  0.20339999999999997  0.0455  0.01375  1.0000
  O   O66       1.0  0.29660000000000003  0.5454999999999999  0.26375  1.0000
  O   O67       1.0  0.20339999999999997  0.4545  0.01375  1.0000
  O   O68       1.0  0.29660000000000003  0.9545  0.26375  1.0000
  O   O69       1.0  0.7966  0.9545  0.48625  1.0000
  O   O70       1.0  0.7034  0.4545  0.23625  1.0000
  O   O71       1.0  0.7966  0.5454999999999999  0.48625  1.0000
  O   O72       1.0  0.7034  0.0455  0.23625  1.0000
  O   O73       1.0  0.2936  0.0009999999999999998  0.0782  1.0000
  O   O74       1.0  0.20639999999999997  0.501  0.3282  1.0000
  O   O75       1.0  0.2936  0.49899999999999994  0.0782  1.0000
  O   O76       1.0  0.20639999999999997  0.9989999999999999  0.3282  1.0000
  O   O77       1.0  0.7063999999999999  0.9989999999999999  0.4218  1.0000
  O   O78       1.0  0.7936000000000001  0.49899999999999994  0.1718  1.0000
  O   O79       1.0  0.7063999999999999  0.501  0.4218  1.0000
  O   O80       1.0  0.7936000000000001  0.0009999999999999998  0.1718  1.0000
  O   O81       1.0  0.1075  0.1265  0.04415  1.0000
  O   O82       1.0  0.3925  0.6265  0.29415  1.0000
  O   O83       1.0  0.1075  0.37349999999999994  0.04415  1.0000
  O   O84       1.0  0.3925  0.8734999999999998  0.29415  1.0000
  O   O85       1.0  0.8925000000000001  0.8734999999999998  0.45585  1.0000
  O   O86       1.0  0.6075  0.37349999999999994  0.20585  1.0000
  O   O87       1.0  0.8925000000000001  0.6265  0.45585  1.0000
  O   O88       1.0  0.6075  0.1265  0.20585  1.0000
  O   O89       1.0  0.0846  0.036999999999999984  0.47215  1.0000
  O   O90       1.0  0.4154  0.537  0.22215000000000007  1.0000
  O   O91       1.0  0.0846  0.463  0.47215  1.0000
  O   O92       1.0  0.4154  0.9629999999999999  0.22215000000000007  1.0000
  O   O93       1.0  0.9154  0.9629999999999999  0.027849999999999986  1.0000
  O   O94       1.0  0.5846  0.463  0.27785  1.0000
  O   O95       1.0  0.9154  0.537  0.027849999999999986  1.0000
  O   O96       1.0  0.5846  0.036999999999999984  0.27785  1.0000
  O   O97       1.0  0.1301  0.07809999999999999  0.38350000000000006  1.0000
  O   O98       1.0  0.3699  0.5781  0.13350000000000006  1.0000
  O   O99       1.0  0.1301  0.42189999999999994  0.38350000000000006  1.0000
  O   O100      1.0  0.3699  0.9218999999999999  0.13350000000000006  1.0000
  O   O101      1.0  0.8699  0.9218999999999999  0.11649999999999994  1.0000
  O   O102      1.0  0.6301  0.42189999999999994  0.3665  1.0000
  O   O103      1.0  0.8699  0.5781  0.11649999999999994  1.0000
  O   O104      1.0  0.6301  0.07809999999999999  0.3665  1.0000
  O   O105      1.0  0.0728  0.9588999999999999  0.3916  1.0000
  O   O106      1.0  0.4272000000000001  0.4588999999999998  0.14159999999999995  1.0000
  O   O107      1.0  0.0728  0.5411000000000001  0.3916  1.0000
  O   O108      1.0  0.4272000000000001  0.041100000000000136  0.14159999999999995  1.0000
  O   O109      1.0  0.9272000000000001  0.041100000000000136  0.1084  1.0000
  O   O110      1.0  0.5728  0.5411000000000001  0.3584  1.0000
  O   O111      1.0  0.9272000000000001  0.4588999999999998  0.1084  1.0000
  O   O112      1.0  0.5728  0.9588999999999999  0.3584  1.0000
  O   O113      1.0  0.2201  0.13129999999999997  0.3228  1.0000
  O   O114      1.0  0.2799000000000001  0.6313  0.07279999999999998  1.0000
  O   O115      1.0  0.2201  0.36869999999999997  0.3228  1.0000
  O   O116      1.0  0.2799000000000001  0.8686999999999999  0.07279999999999998  1.0000
  O   O117      1.0  0.7799  0.8686999999999999  0.1772  1.0000
  O   O118      1.0  0.7201  0.36869999999999997  0.4272  1.0000
  O   O119      1.0  0.7799  0.6313  0.1772  1.0000
  O   O120      1.0  0.7201  0.13129999999999997  0.4272  1.0000
  O   O121      1.0  0.49110000000000004  0.8547999999999999  0.35845  1.0000
  O   O122      1.0  0.008899999999999963  0.3548  0.10844999999999995  1.0000
  O   O123      1.0  0.49110000000000004  0.6452  0.35845  1.0000
  O   O124      1.0  0.008899999999999963  0.1452000000000001  0.10844999999999995  1.0000
  O   O125      1.0  0.5088999999999999  0.1452000000000001  0.14155  1.0000
  O   O126      1.0  0.9911000000000002  0.6452  0.39155  1.0000
  O   O127      1.0  0.5088999999999999  0.3548  0.14155  1.0000
  O   O128      1.0  0.9911000000000002  0.8547999999999999  0.39155  1.0000
  O   O129      1.0  0.3681  0.8310999999999998  0.38715  1.0000
  O   O130      1.0  0.13190000000000002  0.33109999999999973  0.13715  1.0000
  O   O131      1.0  0.3681  0.6689  0.38715  1.0000
  O   O132      1.0  0.13190000000000002  0.16890000000000016  0.13715  1.0000
  O   O133      1.0  0.6319  0.16890000000000016  0.11285  1.0000
  O   O134      1.0  0.8681  0.6689  0.36285000000000006  1.0000
  O   O135      1.0  0.6319  0.33109999999999973  0.11285  1.0000
  O   O136      1.0  0.8681  0.8310999999999998  0.36285000000000006  1.0000
  O   O137      1.0  0.42630000000000007  0.75  0.32154999999999995  1.0000
  O   O138      1.0  0.07369999999999993  0.24999999999999997  0.07155  1.0000
  O   O139      1.0  0.5736999999999999  0.24999999999999997  0.17845000000000005  1.0000
  O   O140      1.0  0.9263000000000001  0.75  0.42845000000000005  1.0000
  O   O141      1.0  0.3217  0.8610999999999999  0.47805  1.0000
  O   O142      1.0  0.17830000000000001  0.3610999999999999  0.22804999999999997  1.0000
  O   O143      1.0  0.3217  0.6389  0.47805  1.0000
  O   O144      1.0  0.17830000000000001  0.13890000000000013  0.22804999999999997  1.0000
  O   O145      1.0  0.6783000000000001  0.13890000000000013  0.021950000000000025  1.0000
  O   O146      1.0  0.8217000000000001  0.6389  0.27195  1.0000
  O   O147      1.0  0.6783000000000001  0.3610999999999999  0.021950000000000025  1.0000
  O   O148      1.0  0.8217000000000001  0.8610999999999999  0.27195  1.0000
  O   O149      1.0  0.241  0.8581999999999997  0.3995  1.0000
  O   O150      1.0  0.259  0.35819999999999985  0.14949999999999997  1.0000
  O   O151      1.0  0.241  0.6418  0.3995  1.0000
  O   O152      1.0  0.259  0.14180000000000015  0.14949999999999997  1.0000
  O   O153      1.0  0.759  0.14180000000000015  0.10049999999999998  1.0000
  O   O154      1.0  0.741  0.6418  0.3505  1.0000
  O   O155      1.0  0.759  0.35819999999999985  0.10049999999999998  1.0000
  O   O156      1.0  0.741  0.8581999999999997  0.3505  1.0000
  O   O157      1.0  0.2943  0.75  0.02895  1.0000
  O   O158      1.0  0.20569999999999997  0.24999999999999997  0.27895  1.0000
  O   O159      1.0  0.7057  0.24999999999999997  0.47104999999999997  1.0000
  O   O160      1.0  0.7943  0.75  0.22105  1.0000
  O   O161      1.0  0.1976  0.8313  0.00015  1.0000
  O   O162      1.0  0.3024  0.33130000000000015  0.25015  1.0000
  O   O163      1.0  0.1976  0.6686999999999999  0.00015  1.0000
  O   O164      1.0  0.3024  0.16869999999999996  0.25015  1.0000
  O   O165      1.0  0.8024  0.16869999999999996  0.49985  1.0000
  O   O166      1.0  0.6976  0.6686999999999999  0.24985  1.0000
  O   O167      1.0  0.8024  0.33130000000000015  0.49985  1.0000
  O   O168      1.0  0.6976  0.8313  0.24985  1.0000
  O   O169      1.0  0.0948  0.75  0.01025  1.0000
  O   O170      1.0  0.4052  0.24999999999999997  0.26025  1.0000
  O   O171      1.0  0.9052  0.24999999999999997  0.48975  1.0000
  O   O172      1.0  0.5948  0.75  0.23975000000000002  1.0000
  O   O173      1.0  0.0809  0.867  0.46375  1.0000
  O   O174      1.0  0.41910000000000003  0.36699999999999994  0.21375  1.0000
  O   O175      1.0  0.0809  0.633  0.46375  1.0000
  O   O176      1.0  0.41910000000000003  0.133  0.21375  1.0000
  O   O177      1.0  0.9190999999999999  0.133  0.036250000000000004  1.0000
  O   O178      1.0  0.5809  0.633  0.28625  1.0000
  O   O179      1.0  0.9190999999999999  0.36699999999999994  0.036250000000000004  1.0000
  O   O180      1.0  0.5809  0.867  0.28625  1.0000
  O   O181      1.0  0.11770000000000001  0.837  0.3703  1.0000
  O   O182      1.0  0.3823  0.3369999999999999  0.12030000000000007  1.0000
  O   O183      1.0  0.11770000000000001  0.663  0.3703  1.0000
  O   O184      1.0  0.3823  0.16300000000000003  0.12030000000000007  1.0000
  O   O185      1.0  0.8823000000000001  0.16300000000000003  0.12969999999999998  1.0000
  O   O186      1.0  0.6177  0.663  0.3797  1.0000
  O   O187      1.0  0.8823000000000001  0.3369999999999999  0.12969999999999998  1.0000
  O   O188      1.0  0.6177  0.837  0.3797  1.0000
  O   O189      1.0  0.2116  0.75  0.34565000000000007  1.0000
  O   O190      1.0  0.2884  0.24999999999999997  0.09565000000000001  1.0000
  O   O191      1.0  0.7884  0.24999999999999997  0.15434999999999993  1.0000
  O   O192      1.0  0.7116  0.75  0.40434999999999993  1.0000
  Si  Si1       1.0  0.4214  0.0711  0.3449  1.0000
  Si  Si2       1.0  0.0786  0.5710999999999999  0.09489999999999998  1.0000
  Si  Si3       1.0  0.4214  0.42889999999999995  0.3449  1.0000
  Si  Si4       1.0  0.0786  0.9289000000000001  0.09489999999999998  1.0000
  Si  Si5       1.0  0.5786  0.9289000000000001  0.1551  1.0000
  Si  Si6       1.0  0.9214000000000001  0.42889999999999995  0.4051  1.0000
  Si  Si7       1.0  0.5786  0.5710999999999999  0.1551  1.0000
  Si  Si8       1.0  0.9214000000000001  0.0711  0.4051  1.0000
  Si  Si9       1.0  0.3259  0.0336  0.42500000000000004  1.0000
  Si  Si10      1.0  0.17409999999999998  0.5336  0.17500000000000004  1.0000
  Si  Si11      1.0  0.3259  0.4664  0.42500000000000004  1.0000
  Si  Si12      1.0  0.17409999999999998  0.9664  0.17500000000000004  1.0000
  Si  Si13      1.0  0.6740999999999999  0.9664  0.07499999999999996  1.0000
  Si  Si14      1.0  0.8259000000000001  0.4664  0.32499999999999996  1.0000
  Si  Si15      1.0  0.6740999999999999  0.5336  0.07499999999999996  1.0000
  Si  Si16      1.0  0.8259000000000001  0.0336  0.32499999999999996  1.0000
  Si  Si17      1.0  0.2792  0.053599999999999995  0.03275  1.0000
  Si  Si18      1.0  0.2208  0.5536  0.28275  1.0000
  Si  Si19      1.0  0.2792  0.4464  0.03275  1.0000
  Si  Si20      1.0  0.2208  0.9463999999999999  0.28275  1.0000
  Si  Si21      1.0  0.7208  0.9463999999999999  0.46725  1.0000
  Si  Si22      1.0  0.7792  0.4464  0.21725  1.0000
  Si  Si23      1.0  0.7208  0.5536  0.46725  1.0000
  Si  Si24      1.0  0.7792  0.053599999999999995  0.21725  1.0000
  Si  Si25      1.0  0.12459999999999999  0.0514  0.024050000000000002  1.0000
  Si  Si26      1.0  0.3754  0.5514  0.27405  1.0000
  Si  Si27      1.0  0.12459999999999999  0.44859999999999994  0.024050000000000002  1.0000
  Si  Si28      1.0  0.3754  0.9486  0.27405  1.0000
  Si  Si29      1.0  0.8754000000000001  0.9486  0.47595  1.0000
  Si  Si30      1.0  0.6246  0.44859999999999994  0.22594999999999998  1.0000
  Si  Si31      1.0  0.8754000000000001  0.5514  0.47595  1.0000
  Si  Si32      1.0  0.6246  0.0514  0.22594999999999998  1.0000
  Si  Si33      1.0  0.0721  0.036  0.41165  1.0000
  Si  Si34      1.0  0.4279  0.536  0.1616500000000001  1.0000
  Si  Si35      1.0  0.0721  0.46399999999999997  0.41165  1.0000
  Si  Si36      1.0  0.4279  0.9639999999999999  0.1616500000000001  1.0000
  Si  Si37      1.0  0.9279  0.9639999999999999  0.08834999999999998  1.0000
  Si  Si38      1.0  0.5721  0.46399999999999997  0.33835  1.0000
  Si  Si39      1.0  0.9279  0.536  0.08834999999999998  1.0000
  Si  Si40      1.0  0.5721  0.036  0.33835  1.0000
  Si  Si41      1.0  0.20339999999999997  0.0687  0.35985  1.0000
  Si  Si42      1.0  0.29660000000000003  0.5687  0.10985  1.0000
  Si  Si43      1.0  0.20339999999999997  0.43129999999999996  0.35985  1.0000
  Si  Si44      1.0  0.29660000000000003  0.9313  0.10985  1.0000
  Si  Si45      1.0  0.7966  0.9313  0.14015  1.0000
  Si  Si46      1.0  0.7034  0.43129999999999996  0.39015  1.0000
  Si  Si47      1.0  0.7966  0.5687  0.14015  1.0000
  Si  Si48      1.0  0.7034  0.0687  0.39015  1.0000
  Si  Si49      1.0  0.4195  0.8274  0.34025  1.0000
  Si  Si50      1.0  0.08050000000000002  0.3273999999999999  0.09024999999999994  1.0000
  Si  Si51      1.0  0.4195  0.6726  0.34025  1.0000
  Si  Si52      1.0  0.08050000000000002  0.17259999999999998  0.09024999999999994  1.0000
  Si  Si53      1.0  0.5805  0.17259999999999998  0.15975  1.0000
  Si  Si54      1.0  0.9195  0.6726  0.40975  1.0000
  Si  Si55      1.0  0.5805  0.3273999999999999  0.15975  1.0000
  Si  Si56      1.0  0.9195  0.8274  0.40975  1.0000
  Si  Si57      1.0  0.3152  0.8764999999999997  0.41805  1.0000
  Si  Si58      1.0  0.18480000000000002  0.37649999999999983  0.16805000000000003  1.0000
  Si  Si59      1.0  0.3152  0.6235000000000002  0.41805  1.0000
  Si  Si60      1.0  0.18480000000000002  0.12350000000000015  0.16805000000000003  1.0000
  Si  Si61      1.0  0.6848000000000001  0.12350000000000015  0.08195000000000002  1.0000
  Si  Si62      1.0  0.8151999999999999  0.6235000000000002  0.33195  1.0000
  Si  Si63      1.0  0.6848000000000001  0.37649999999999983  0.08195000000000002  1.0000
  Si  Si64      1.0  0.8151999999999999  0.8764999999999997  0.33195  1.0000
  Si  Si65      1.0  0.2733  0.8277999999999999  0.0201  1.0000
  Si  Si66      1.0  0.22670000000000004  0.32779999999999987  0.2701  1.0000
  Si  Si67      1.0  0.2733  0.6722000000000001  0.0201  1.0000
  Si  Si68      1.0  0.22670000000000004  0.17220000000000013  0.2701  1.0000
  Si  Si69      1.0  0.7267  0.17220000000000013  0.4799  1.0000
  Si  Si70      1.0  0.7733  0.6722000000000001  0.2299  1.0000
  Si  Si71      1.0  0.7267  0.32779999999999987  0.4799  1.0000
  Si  Si72      1.0  0.7733  0.8277999999999999  0.2299  1.0000
  Si  Si73      1.0  0.11850000000000001  0.8279  0.00915  1.0000
  Si  Si74      1.0  0.3815  0.3279  0.25915  1.0000
  Si  Si75      1.0  0.11850000000000001  0.6721  0.00915  1.0000
  Si  Si76      1.0  0.3815  0.1721  0.25915  1.0000
  Si  Si77      1.0  0.8815  0.1721  0.49085  1.0000
  Si  Si78      1.0  0.6185  0.6721  0.24085  1.0000
  Si  Si79      1.0  0.8815  0.3279  0.49085  1.0000
  Si  Si80      1.0  0.6185  0.8279  0.24085  1.0000
  Si  Si81      1.0  0.0657  0.8793999999999998  0.40434999999999993  1.0000
  Si  Si82      1.0  0.4343  0.37939999999999996  0.15435  1.0000
  Si  Si83      1.0  0.0657  0.6206  0.40434999999999993  1.0000
  Si  Si84      1.0  0.4343  0.12060000000000014  0.15435  1.0000
  Si  Si85      1.0  0.9343  0.12060000000000014  0.09565000000000007  1.0000
  Si  Si86      1.0  0.5657  0.6206  0.34565000000000007  1.0000
  Si  Si87      1.0  0.9343  0.37939999999999996  0.09565000000000007  1.0000
  Si  Si88      1.0  0.5657  0.8793999999999998  0.34565000000000007  1.0000
  Si  Si89      1.0  0.1947  0.8287999999999999  0.3546  1.0000
  Si  Si90      1.0  0.3053  0.32879999999999976  0.10460000000000003  1.0000
  Si  Si91      1.0  0.1947  0.6712000000000001  0.3546  1.0000
  Si  Si92      1.0  0.3053  0.1712000000000001  0.10460000000000003  1.0000
  Si  Si93      1.0  0.8053  0.1712000000000001  0.14539999999999997  1.0000
  Si  Si94      1.0  0.6947  0.6712000000000001  0.3954  1.0000
  Si  Si95      1.0  0.8053  0.32879999999999976  0.14539999999999997  1.0000
  Si  Si96      1.0  0.6947  0.8287999999999999  0.3954  1.0000
  O   O193      1.0  0.5012  0.0699  0.8509  1.0000
  O   O194      1.0  0.9988000000000001  0.5699  0.6009  1.0000
  O   O195      1.0  0.5012  0.4301  0.8509  1.0000
  O   O196      1.0  0.9988000000000001  0.9301  0.6009  1.0000
  O   O197      1.0  0.4988  0.9301  0.6491  1.0000
  O   O198      1.0  0.0011999999999998678  0.4301  0.8991000000000001  1.0000
  O   O199      1.0  0.4988  0.5699  0.6491  1.0000
  O   O200      1.0  0.0011999999999998678  0.0699  0.8991000000000001  1.0000
  O   O201      1.0  0.3875  0.0743  0.9004  1.0000
  O   O202      1.0  0.1125  0.5743  0.6504000000000001  1.0000
  O   O203      1.0  0.3875  0.4256999999999999  0.9004  1.0000
  O   O204      1.0  0.1125  0.9257  0.6504000000000001  1.0000
  O   O205      1.0  0.6125  0.9257  0.5996  1.0000
  O   O206      1.0  0.8875  0.4256999999999999  0.8495999999999999  1.0000
  O   O207      1.0  0.6125  0.5743  0.5996  1.0000
  O   O208      1.0  0.8875  0.0743  0.8495999999999999  1.0000
  O   O209      1.0  0.3995  0.13659999999999997  0.8125499999999999  1.0000
  O   O210      1.0  0.10049999999999999  0.6365999999999999  0.5625499999999999  1.0000
  O   O211      1.0  0.3995  0.36340000000000006  0.8125499999999999  1.0000
  O   O212      1.0  0.10049999999999999  0.8634  0.5625499999999999  1.0000
  O   O213      1.0  0.6005  0.8634  0.6874500000000001  1.0000
  O   O214      1.0  0.8995  0.36340000000000006  0.93745  1.0000
  O   O215      1.0  0.6005  0.6365999999999999  0.6874500000000001  1.0000
  O   O216      1.0  0.8995  0.13659999999999997  0.93745  1.0000
  O   O217      1.0  0.3972  0.003399999999999999  0.8163  1.0000
  O   O218      1.0  0.1028  0.5034  0.5663  1.0000
  O   O219      1.0  0.3972  0.49659999999999993  0.8163  1.0000
  O   O220      1.0  0.1028  0.9965999999999999  0.5663  1.0000
  O   O221      1.0  0.6028  0.9965999999999999  0.6837  1.0000
  O   O222      1.0  0.8972  0.49659999999999993  0.9336999999999999  1.0000
  O   O223      1.0  0.6028  0.5034  0.6837  1.0000
  O   O224      1.0  0.8972  0.003399999999999999  0.9336999999999999  1.0000
  O   O225      1.0  0.329  0.03849999999999999  0.9861  1.0000
  O   O226      1.0  0.17099999999999999  0.5385  0.7361  1.0000
  O   O227      1.0  0.329  0.4615  0.9861  1.0000
  O   O228      1.0  0.17099999999999999  0.9614999999999999  0.7361  1.0000
  O   O229      1.0  0.671  0.9614999999999999  0.5139  1.0000
  O   O230      1.0  0.829  0.4615  0.7638999999999999  1.0000
  O   O231      1.0  0.671  0.5385  0.5139  1.0000
  O   O232      1.0  0.829  0.03849999999999999  0.7638999999999999  1.0000
  O   O233      1.0  0.3297  0.9555  0.90775  1.0000
  O   O234      1.0  0.1703  0.4555  0.6577500000000001  1.0000
  O   O235      1.0  0.3297  0.5444999999999999  0.90775  1.0000
  O   O236      1.0  0.1703  0.044499999999999984  0.6577500000000001  1.0000
  O   O237      1.0  0.6703  0.044499999999999984  0.59225  1.0000
  O   O238      1.0  0.8297  0.5444999999999999  0.8422499999999999  1.0000
  O   O239      1.0  0.6703  0.4555  0.59225  1.0000
  O   O240      1.0  0.8297  0.9555  0.8422499999999999  1.0000
  O   O241      1.0  0.2571  0.06629999999999998  0.9053  1.0000
  O   O242      1.0  0.2429  0.5663  0.6552999999999999  1.0000
  O   O243      1.0  0.2571  0.43370000000000003  0.9053  1.0000
  O   O244      1.0  0.2429  0.9336999999999999  0.6552999999999999  1.0000
  O   O245      1.0  0.7429  0.9336999999999999  0.5947  1.0000
  O   O246      1.0  0.7571  0.43370000000000003  0.8446999999999999  1.0000
  O   O247      1.0  0.7429  0.5663  0.5947  1.0000
  O   O248      1.0  0.7571  0.06629999999999998  0.8446999999999999  1.0000
  O   O249      1.0  0.291  0.1296  0.553  1.0000
  O   O250      1.0  0.209  0.6295999999999999  0.8029999999999999  1.0000
  O   O251      1.0  0.291  0.37039999999999995  0.553  1.0000
  O   O252      1.0  0.209  0.8704000000000001  0.8029999999999999  1.0000
  O   O253      1.0  0.7090000000000001  0.8704000000000001  0.9470000000000001  1.0000
  O   O254      1.0  0.7909999999999999  0.37039999999999995  0.6970000000000001  1.0000
  O   O255      1.0  0.7090000000000001  0.6295999999999999  0.9470000000000001  1.0000
  O   O256      1.0  0.7909999999999999  0.1296  0.6970000000000001  1.0000
  O   O257      1.0  0.20339999999999997  0.0455  0.51375  1.0000
  O   O258      1.0  0.29660000000000003  0.5454999999999999  0.76375  1.0000
  O   O259      1.0  0.20339999999999997  0.4545  0.51375  1.0000
  O   O260      1.0  0.29660000000000003  0.9545  0.76375  1.0000
  O   O261      1.0  0.7966  0.9545  0.9862500000000001  1.0000
  O   O262      1.0  0.7034  0.4545  0.7362500000000001  1.0000
  O   O263      1.0  0.7966  0.5454999999999999  0.9862500000000001  1.0000
  O   O264      1.0  0.7034  0.0455  0.7362500000000001  1.0000
  O   O265      1.0  0.2936  0.0009999999999999998  0.5782  1.0000
  O   O266      1.0  0.20639999999999997  0.501  0.8282  1.0000
  O   O267      1.0  0.2936  0.49899999999999994  0.5782  1.0000
  O   O268      1.0  0.20639999999999997  0.9989999999999999  0.8282  1.0000
  O   O269      1.0  0.7063999999999999  0.9989999999999999  0.9218  1.0000
  O   O270      1.0  0.7936000000000001  0.49899999999999994  0.6718  1.0000
  O   O271      1.0  0.7063999999999999  0.501  0.9218  1.0000
  O   O272      1.0  0.7936000000000001  0.0009999999999999998  0.6718  1.0000
  O   O273      1.0  0.1075  0.1265  0.54415  1.0000
  O   O274      1.0  0.3925  0.6265  0.79415  1.0000
  O   O275      1.0  0.1075  0.37349999999999994  0.54415  1.0000
  O   O276      1.0  0.3925  0.8734999999999998  0.79415  1.0000
  O   O277      1.0  0.8925000000000001  0.8734999999999998  0.9558500000000001  1.0000
  O   O278      1.0  0.6075  0.37349999999999994  0.70585  1.0000
  O   O279      1.0  0.8925000000000001  0.6265  0.9558500000000001  1.0000
  O   O280      1.0  0.6075  0.1265  0.70585  1.0000
  O   O281      1.0  0.0846  0.036999999999999984  0.9721500000000001  1.0000
  O   O282      1.0  0.4154  0.537  0.7221500000000001  1.0000
  O   O283      1.0  0.0846  0.463  0.9721500000000001  1.0000
  O   O284      1.0  0.4154  0.9629999999999999  0.7221500000000001  1.0000
  O   O285      1.0  0.9154  0.9629999999999999  0.5278499999999999  1.0000
  O   O286      1.0  0.5846  0.463  0.77785  1.0000
  O   O287      1.0  0.9154  0.537  0.5278499999999999  1.0000
  O   O288      1.0  0.5846  0.036999999999999984  0.77785  1.0000
  O   O289      1.0  0.1301  0.07809999999999999  0.8835  1.0000
  O   O290      1.0  0.3699  0.5781  0.6335000000000001  1.0000
  O   O291      1.0  0.1301  0.42189999999999994  0.8835  1.0000
  O   O292      1.0  0.3699  0.9218999999999999  0.6335000000000001  1.0000
  O   O293      1.0  0.8699  0.9218999999999999  0.6164999999999999  1.0000
  O   O294      1.0  0.6301  0.42189999999999994  0.8664999999999999  1.0000
  O   O295      1.0  0.8699  0.5781  0.6164999999999999  1.0000
  O   O296      1.0  0.6301  0.07809999999999999  0.8664999999999999  1.0000
  O   O297      1.0  0.0728  0.9588999999999999  0.8916000000000001  1.0000
  O   O298      1.0  0.4272000000000001  0.4588999999999998  0.6416  1.0000
  O   O299      1.0  0.0728  0.5411000000000001  0.8916000000000001  1.0000
  O   O300      1.0  0.4272000000000001  0.041100000000000136  0.6416  1.0000
  O   O301      1.0  0.9272000000000001  0.041100000000000136  0.6084  1.0000
  O   O302      1.0  0.5728  0.5411000000000001  0.8584  1.0000
  O   O303      1.0  0.9272000000000001  0.4588999999999998  0.6084  1.0000
  O   O304      1.0  0.5728  0.9588999999999999  0.8584  1.0000
  O   O305      1.0  0.2201  0.13129999999999997  0.8228  1.0000
  O   O306      1.0  0.2799000000000001  0.6313  0.5728  1.0000
  O   O307      1.0  0.2201  0.36869999999999997  0.8228  1.0000
  O   O308      1.0  0.2799000000000001  0.8686999999999999  0.5728  1.0000
  O   O309      1.0  0.7799  0.8686999999999999  0.6772  1.0000
  O   O310      1.0  0.7201  0.36869999999999997  0.9272  1.0000
  O   O311      1.0  0.7799  0.6313  0.6772  1.0000
  O   O312      1.0  0.7201  0.13129999999999997  0.9272  1.0000
  O   O313      1.0  0.49110000000000004  0.8547999999999999  0.85845  1.0000
  O   O314      1.0  0.008899999999999963  0.3548  0.6084499999999999  1.0000
  O   O315      1.0  0.49110000000000004  0.6452  0.85845  1.0000
  O   O316      1.0  0.008899999999999963  0.1452000000000001  0.6084499999999999  1.0000
  O   O317      1.0  0.5088999999999999  0.1452000000000001  0.6415500000000001  1.0000
  O   O318      1.0  0.9911000000000002  0.6452  0.89155  1.0000
  O   O319      1.0  0.5088999999999999  0.3548  0.6415500000000001  1.0000
  O   O320      1.0  0.9911000000000002  0.8547999999999999  0.89155  1.0000
  O   O321      1.0  0.3681  0.8310999999999998  0.88715  1.0000
  O   O322      1.0  0.13190000000000002  0.33109999999999973  0.63715  1.0000
  O   O323      1.0  0.3681  0.6689  0.88715  1.0000
  O   O324      1.0  0.13190000000000002  0.16890000000000016  0.63715  1.0000
  O   O325      1.0  0.6319  0.16890000000000016  0.61285  1.0000
  O   O326      1.0  0.8681  0.6689  0.86285  1.0000
  O   O327      1.0  0.6319  0.33109999999999973  0.61285  1.0000
  O   O328      1.0  0.8681  0.8310999999999998  0.86285  1.0000
  O   O329      1.0  0.42630000000000007  0.75  0.8215499999999999  1.0000
  O   O330      1.0  0.07369999999999993  0.24999999999999997  0.57155  1.0000
  O   O331      1.0  0.5736999999999999  0.24999999999999997  0.6784500000000001  1.0000
  O   O332      1.0  0.9263000000000001  0.75  0.92845  1.0000
  O   O333      1.0  0.3217  0.8610999999999999  0.9780500000000001  1.0000
  O   O334      1.0  0.17830000000000001  0.3610999999999999  0.72805  1.0000
  O   O335      1.0  0.3217  0.6389  0.9780500000000001  1.0000
  O   O336      1.0  0.17830000000000001  0.13890000000000013  0.72805  1.0000
  O   O337      1.0  0.6783000000000001  0.13890000000000013  0.52195  1.0000
  O   O338      1.0  0.8217000000000001  0.6389  0.77195  1.0000
  O   O339      1.0  0.6783000000000001  0.3610999999999999  0.52195  1.0000
  O   O340      1.0  0.8217000000000001  0.8610999999999999  0.77195  1.0000
  O   O341      1.0  0.241  0.8581999999999997  0.8995  1.0000
  O   O342      1.0  0.259  0.35819999999999985  0.6495000000000001  1.0000
  O   O343      1.0  0.241  0.6418  0.8995  1.0000
  O   O344      1.0  0.259  0.14180000000000015  0.6495000000000001  1.0000
  O   O345      1.0  0.759  0.14180000000000015  0.6005  1.0000
  O   O346      1.0  0.741  0.6418  0.8505  1.0000
  O   O347      1.0  0.759  0.35819999999999985  0.6005  1.0000
  O   O348      1.0  0.741  0.8581999999999997  0.8505  1.0000
  O   O349      1.0  0.2943  0.75  0.52895  1.0000
  O   O350      1.0  0.20569999999999997  0.24999999999999997  0.77895  1.0000
  O   O351      1.0  0.7057  0.24999999999999997  0.9710500000000001  1.0000
  O   O352      1.0  0.7943  0.75  0.72105  1.0000
  O   O353      1.0  0.1976  0.8313  0.50015  1.0000
  O   O354      1.0  0.3024  0.33130000000000015  0.75015  1.0000
  O   O355      1.0  0.1976  0.6686999999999999  0.50015  1.0000
  O   O356      1.0  0.3024  0.16869999999999996  0.75015  1.0000
  O   O357      1.0  0.8024  0.16869999999999996  0.9998499999999999  1.0000
  O   O358      1.0  0.6976  0.6686999999999999  0.74985  1.0000
  O   O359      1.0  0.8024  0.33130000000000015  0.9998499999999999  1.0000
  O   O360      1.0  0.6976  0.8313  0.74985  1.0000
  O   O361      1.0  0.0948  0.75  0.51025  1.0000
  O   O362      1.0  0.4052  0.24999999999999997  0.76025  1.0000
  O   O363      1.0  0.9052  0.24999999999999997  0.9897500000000001  1.0000
  O   O364      1.0  0.5948  0.75  0.73975  1.0000
  O   O365      1.0  0.0809  0.867  0.9637499999999999  1.0000
  O   O366      1.0  0.41910000000000003  0.36699999999999994  0.71375  1.0000
  O   O367      1.0  0.0809  0.633  0.9637499999999999  1.0000
  O   O368      1.0  0.41910000000000003  0.133  0.71375  1.0000
  O   O369      1.0  0.9190999999999999  0.133  0.53625  1.0000
  O   O370      1.0  0.5809  0.633  0.78625  1.0000
  O   O371      1.0  0.9190999999999999  0.36699999999999994  0.53625  1.0000
  O   O372      1.0  0.5809  0.867  0.78625  1.0000
  O   O373      1.0  0.11770000000000001  0.837  0.8703  1.0000
  O   O374      1.0  0.3823  0.3369999999999999  0.6203000000000001  1.0000
  O   O375      1.0  0.11770000000000001  0.663  0.8703  1.0000
  O   O376      1.0  0.3823  0.16300000000000003  0.6203000000000001  1.0000
  O   O377      1.0  0.8823000000000001  0.16300000000000003  0.6297  1.0000
  O   O378      1.0  0.6177  0.663  0.8796999999999999  1.0000
  O   O379      1.0  0.8823000000000001  0.3369999999999999  0.6297  1.0000
  O   O380      1.0  0.6177  0.837  0.8796999999999999  1.0000
  O   O381      1.0  0.2116  0.75  0.84565  1.0000
  O   O382      1.0  0.2884  0.24999999999999997  0.59565  1.0000
  O   O383      1.0  0.7884  0.24999999999999997  0.6543499999999999  1.0000
  O   O384      1.0  0.7116  0.75  0.90435  1.0000
  Si  Si97      1.0  0.4214  0.0711  0.8449  1.0000
  Si  Si98      1.0  0.0786  0.5710999999999999  0.5949  1.0000
  Si  Si99      1.0  0.4214  0.42889999999999995  0.8449  1.0000
  Si  Si100     1.0  0.0786  0.9289000000000001  0.5949  1.0000
  Si  Si101     1.0  0.5786  0.9289000000000001  0.6551  1.0000
  Si  Si102     1.0  0.9214000000000001  0.42889999999999995  0.9050999999999999  1.0000
  Si  Si103     1.0  0.5786  0.5710999999999999  0.6551  1.0000
  Si  Si104     1.0  0.9214000000000001  0.0711  0.9050999999999999  1.0000
  Si  Si105     1.0  0.3259  0.0336  0.925  1.0000
  Si  Si106     1.0  0.17409999999999998  0.5336  0.675  1.0000
  Si  Si107     1.0  0.3259  0.4664  0.925  1.0000
  Si  Si108     1.0  0.17409999999999998  0.9664  0.675  1.0000
  Si  Si109     1.0  0.6740999999999999  0.9664  0.575  1.0000
  Si  Si110     1.0  0.8259000000000001  0.4664  0.8250000000000001  1.0000
  Si  Si111     1.0  0.6740999999999999  0.5336  0.575  1.0000
  Si  Si112     1.0  0.8259000000000001  0.0336  0.8250000000000001  1.0000
  Si  Si113     1.0  0.2792  0.053599999999999995  0.5327500000000001  1.0000
  Si  Si114     1.0  0.2208  0.5536  0.7827500000000001  1.0000
  Si  Si115     1.0  0.2792  0.4464  0.5327500000000001  1.0000
  Si  Si116     1.0  0.2208  0.9463999999999999  0.7827500000000001  1.0000
  Si  Si117     1.0  0.7208  0.9463999999999999  0.9672499999999999  1.0000
  Si  Si118     1.0  0.7792  0.4464  0.7172499999999999  1.0000
  Si  Si119     1.0  0.7208  0.5536  0.9672499999999999  1.0000
  Si  Si120     1.0  0.7792  0.053599999999999995  0.7172499999999999  1.0000
  Si  Si121     1.0  0.12459999999999999  0.0514  0.52405  1.0000
  Si  Si122     1.0  0.3754  0.5514  0.77405  1.0000
  Si  Si123     1.0  0.12459999999999999  0.44859999999999994  0.52405  1.0000
  Si  Si124     1.0  0.3754  0.9486  0.77405  1.0000
  Si  Si125     1.0  0.8754000000000001  0.9486  0.9759500000000001  1.0000
  Si  Si126     1.0  0.6246  0.44859999999999994  0.72595  1.0000
  Si  Si127     1.0  0.8754000000000001  0.5514  0.9759500000000001  1.0000
  Si  Si128     1.0  0.6246  0.0514  0.72595  1.0000
  Si  Si129     1.0  0.0721  0.036  0.91165  1.0000
  Si  Si130     1.0  0.4279  0.536  0.6616500000000001  1.0000
  Si  Si131     1.0  0.0721  0.46399999999999997  0.91165  1.0000
  Si  Si132     1.0  0.4279  0.9639999999999999  0.6616500000000001  1.0000
  Si  Si133     1.0  0.9279  0.9639999999999999  0.58835  1.0000
  Si  Si134     1.0  0.5721  0.46399999999999997  0.83835  1.0000
  Si  Si135     1.0  0.9279  0.536  0.58835  1.0000
  Si  Si136     1.0  0.5721  0.036  0.83835  1.0000
  Si  Si137     1.0  0.20339999999999997  0.0687  0.85985  1.0000
  Si  Si138     1.0  0.29660000000000003  0.5687  0.6098500000000001  1.0000
  Si  Si139     1.0  0.20339999999999997  0.43129999999999996  0.85985  1.0000
  Si  Si140     1.0  0.29660000000000003  0.9313  0.6098500000000001  1.0000
  Si  Si141     1.0  0.7966  0.9313  0.64015  1.0000
  Si  Si142     1.0  0.7034  0.43129999999999996  0.89015  1.0000
  Si  Si143     1.0  0.7966  0.5687  0.64015  1.0000
  Si  Si144     1.0  0.7034  0.0687  0.89015  1.0000
  Si  Si145     1.0  0.4195  0.8274  0.8402499999999999  1.0000
  Si  Si146     1.0  0.08050000000000002  0.3273999999999999  0.5902499999999999  1.0000
  Si  Si147     1.0  0.4195  0.6726  0.8402499999999999  1.0000
  Si  Si148     1.0  0.08050000000000002  0.17259999999999998  0.5902499999999999  1.0000
  Si  Si149     1.0  0.5805  0.17259999999999998  0.65975  1.0000
  Si  Si150     1.0  0.9195  0.6726  0.9097500000000001  1.0000
  Si  Si151     1.0  0.5805  0.3273999999999999  0.65975  1.0000
  Si  Si152     1.0  0.9195  0.8274  0.9097500000000001  1.0000
  Si  Si153     1.0  0.3152  0.8764999999999997  0.9180499999999999  1.0000
  Si  Si154     1.0  0.18480000000000002  0.37649999999999983  0.6680499999999999  1.0000
  Si  Si155     1.0  0.3152  0.6235000000000002  0.9180499999999999  1.0000
  Si  Si156     1.0  0.18480000000000002  0.12350000000000015  0.6680499999999999  1.0000
  Si  Si157     1.0  0.6848000000000001  0.12350000000000015  0.5819500000000001  1.0000
  Si  Si158     1.0  0.8151999999999999  0.6235000000000002  0.8319500000000001  1.0000
  Si  Si159     1.0  0.6848000000000001  0.37649999999999983  0.5819500000000001  1.0000
  Si  Si160     1.0  0.8151999999999999  0.8764999999999997  0.8319500000000001  1.0000
  Si  Si161     1.0  0.2733  0.8277999999999999  0.5201  1.0000
  Si  Si162     1.0  0.22670000000000004  0.32779999999999987  0.7701000000000001  1.0000
  Si  Si163     1.0  0.2733  0.6722000000000001  0.5201  1.0000
  Si  Si164     1.0  0.22670000000000004  0.17220000000000013  0.7701000000000001  1.0000
  Si  Si165     1.0  0.7267  0.17220000000000013  0.9799  1.0000
  Si  Si166     1.0  0.7733  0.6722000000000001  0.7299000000000001  1.0000
  Si  Si167     1.0  0.7267  0.32779999999999987  0.9799  1.0000
  Si  Si168     1.0  0.7733  0.8277999999999999  0.7299000000000001  1.0000
  Si  Si169     1.0  0.11850000000000001  0.8279  0.50915  1.0000
  Si  Si170     1.0  0.3815  0.3279  0.75915  1.0000
  Si  Si171     1.0  0.11850000000000001  0.6721  0.50915  1.0000
  Si  Si172     1.0  0.3815  0.1721  0.75915  1.0000
  Si  Si173     1.0  0.8815  0.1721  0.9908499999999999  1.0000
  Si  Si174     1.0  0.6185  0.6721  0.74085  1.0000
  Si  Si175     1.0  0.8815  0.3279  0.9908499999999999  1.0000
  Si  Si176     1.0  0.6185  0.8279  0.74085  1.0000
  Si  Si177     1.0  0.0657  0.8793999999999998  0.90435  1.0000
  Si  Si178     1.0  0.4343  0.37939999999999996  0.65435  1.0000
  Si  Si179     1.0  0.0657  0.6206  0.90435  1.0000
  Si  Si180     1.0  0.4343  0.12060000000000014  0.65435  1.0000
  Si  Si181     1.0  0.9343  0.12060000000000014  0.59565  1.0000
  Si  Si182     1.0  0.5657  0.6206  0.84565  1.0000
  Si  Si183     1.0  0.9343  0.37939999999999996  0.59565  1.0000
  Si  Si184     1.0  0.5657  0.8793999999999998  0.84565  1.0000
  Si  Si185     1.0  0.1947  0.8287999999999999  0.8546  1.0000
  Si  Si186     1.0  0.3053  0.32879999999999976  0.6046  1.0000
  Si  Si187     1.0  0.1947  0.6712000000000001  0.8546  1.0000
  Si  Si188     1.0  0.3053  0.1712000000000001  0.6046  1.0000
  Si  Si189     1.0  0.8053  0.1712000000000001  0.6454  1.0000
  Si  Si190     1.0  0.6947  0.6712000000000001  0.8954  1.0000
  Si  Si191     1.0  0.8053  0.32879999999999976  0.6454  1.0000
  Si  Si192     1.0  0.6947  0.8287999999999999  0.8954  1.0000
